      54
 i =        0, time =        0.000, E =      -376.2283053279
  C        13.9382650000       18.7254350000       17.5001700000
  N        13.9371850000       17.2540750000       17.4995700000
  N        12.7530050000       19.3394950000       17.5004200000
  C        12.7330850000       20.6694150000       17.5010400000
  C        11.6532350000       22.6861850000       17.5000300000
  C        13.9393150000       22.7580450000       17.5003500000
  N        10.3789950000       23.4209450000       17.4998700000
  N        11.5917950000       21.3526850000       17.5004400000
  N        12.7775750000       23.4057850000       17.4993300000
  N        13.9392250000       21.3655250000       17.5020300000
  N        17.4994050000       11.0869450000       17.4989900000
  C        17.4986450000       12.5581250000       17.4993000000
  C        16.2918250000       14.5014650000       17.5006200000
  C        15.2109050000       16.5176850000       17.4995400000
  C        18.7039350000       14.5023750000       17.5002300000
  C        17.4974750000       16.5909550000       17.4994200000
  C        19.7834050000       16.5192950000       17.4997000000
  N        19.8449750000       15.1857650000       17.5007600000
  N        18.6590650000       17.2389850000       17.4979700000
  N        15.1240850000       19.3388750000       17.5004900000
  N        16.3348950000       17.2377050000       17.4985700000
  N        17.4976150000       15.1982650000       17.5012600000
  N        18.6839850000       13.1722350000       17.4984600000
  N        16.3128650000       13.1714050000       17.5004800000
  N        15.1499050000       15.1841550000       17.5000800000
  C        21.0592550000       18.7249750000       17.5002600000
  N        19.8739450000       19.3389150000       17.5009400000
  N        21.0579350000       17.2538450000       17.4998300000
  N        22.2450250000       19.3383250000       17.5000600000
  C        15.1452150000       20.6689450000       17.5013600000
  C        16.2257850000       22.6851750000       17.5004200000
  C        19.8537450000       20.6691350000       17.5011300000
  C        18.7739350000       22.6858450000       17.5005100000
  C        22.2661050000       20.6684650000       17.5012800000
  C        21.0603350000       22.7577450000       17.5009000000
  C        23.3467250000       22.6847650000       17.5009200000
  N        15.1015950000       23.4050450000       17.4992300000
  N        16.2868650000       21.3516950000       17.5013200000
  N        17.4995750000       23.4212450000       17.5002800000
  N        19.8983050000       23.4055550000       17.5005700000
  N        22.2226350000       23.4044550000       17.4999300000
  N        23.4079150000       21.3509550000       17.5017000000
  N        21.0600950000       21.3649950000       17.5019000000
  N        18.7125150000       21.3523050000       17.5004100000
  N        24.6205050000       23.4209850000       17.5008600000
  H        10.3784650000       24.4054450000       17.4995700000
  H         9.5266650000       22.9282350000       17.5000600000
  H        18.3522650000       10.5951350000       17.4981300000
  H        16.6470550000       10.5942550000       17.4996400000
  H        24.6200350000       24.4054850000       17.5003000000
  H        25.4733350000       22.9291350000       17.5013800000
  H        13.0842550000       16.7623950000       17.4991900000
  H        21.9101250000       16.7608850000       17.4996300000
  H        17.4992850000       24.4057450000       17.5000300000
